Circuit: * Z:\Documents\BCH\hrm_test\filter_model.asc

WARNING: Less than two connections to node +V.  This node is used by V1.
WARNING: Less than two connections to node -V.  This node is used by V2.
Direct Newton iteration for .op point succeeded.

Date: Fri Dec 06 15:13:49 2013
Total elapsed time: 0.203 seconds.

tnom = 27
temp = 27
method = modified trap
totiter = 2107
traniter = 2088
tranpoints = 1045
accept = 1045
rejected = 0
matrix size = 35
fillins = 44
solver = Normal
Matrix Compiler1: 6.61 KB object code size  2.0/1.3/[1.1]
Matrix Compiler2:     294 opcodes  1.2/[1.1]/1.3


